.SUBCKT CIM rst_n clk in_valid weight_valid out_valid Out_OFM[12] Out_OFM[11] Out_OFM[10] Out_OFM[9] Out_OFM[8] Out_OFM[7] Out_OFM[6] Out_OFM[5] Out_OFM[4] Out_OFM[3] Out_OFM[2] Out_OFM[1] Out_OFM[0]
Xclk21_reg n1269 clk n1905 n1254 clk21 ASYNC_DFFHx1_ASAP7_75t_R
XOut_OFM1_reg_12_ n680 n1269 Out_OFM1[12] DFFHQNx1_ASAP7_75t_R
XOut_OFM1_reg_11_ n679 n1269 Out_OFM1[11] DFFHQNx1_ASAP7_75t_R
XOut_OFM1_reg_10_ n678 n1269 Out_OFM1[10] DFFHQNx1_ASAP7_75t_R
XOut_OFM1_reg_9_ n677 n1269 Out_OFM1[9] DFFHQNx1_ASAP7_75t_R
XOut_OFM1_reg_8_ n676 n1269 Out_OFM1[8] DFFHQNx1_ASAP7_75t_R
XOut_OFM1_reg_7_ n675 n1269 Out_OFM1[7] DFFHQNx1_ASAP7_75t_R
XOut_OFM1_reg_6_ n674 n1269 Out_OFM1[6] DFFHQNx1_ASAP7_75t_R
XOut_OFM1_reg_5_ n673 n1269 Out_OFM1[5] DFFHQNx1_ASAP7_75t_R
XOut_OFM1_reg_4_ n672 n1269 Out_OFM1[4] DFFHQNx1_ASAP7_75t_R
XOut_OFM1_reg_3_ n671 n1269 Out_OFM1[3] DFFHQNx1_ASAP7_75t_R
XOut_OFM1_reg_2_ n670 n1269 Out_OFM1[2] DFFHQNx1_ASAP7_75t_R
XOut_OFM1_reg_1_ n669 n1269 Out_OFM1[1] DFFHQNx1_ASAP7_75t_R
XOut_OFM1_reg_0_ n668 n1269 Out_OFM1[0] DFFHQNx1_ASAP7_75t_R
XOut_OFM2_reg_12_ n680 clk22 Out_OFM2[12] DFFHQNx1_ASAP7_75t_R
XOut_OFM2_reg_11_ n679 clk22 Out_OFM2[11] DFFHQNx1_ASAP7_75t_R
XOut_OFM2_reg_10_ n678 clk22 Out_OFM2[10] DFFHQNx1_ASAP7_75t_R
XOut_OFM2_reg_9_ n677 clk22 Out_OFM2[9] DFFHQNx1_ASAP7_75t_R
XOut_OFM2_reg_8_ n676 clk22 Out_OFM2[8] DFFHQNx1_ASAP7_75t_R
XOut_OFM2_reg_7_ n675 clk22 Out_OFM2[7] DFFHQNx1_ASAP7_75t_R
XOut_OFM2_reg_6_ n674 clk22 Out_OFM2[6] DFFHQNx1_ASAP7_75t_R
XOut_OFM2_reg_5_ n673 clk22 Out_OFM2[5] DFFHQNx1_ASAP7_75t_R
XOut_OFM2_reg_4_ n672 clk22 Out_OFM2[4] DFFHQNx1_ASAP7_75t_R
XOut_OFM2_reg_3_ n671 clk22 Out_OFM2[3] DFFHQNx1_ASAP7_75t_R
XOut_OFM2_reg_2_ n670 clk22 Out_OFM2[2] DFFHQNx1_ASAP7_75t_R
XOut_OFM2_reg_1_ n669 clk22 Out_OFM2[1] DFFHQNx1_ASAP7_75t_R
XOut_OFM2_reg_0_ n668 clk22 Out_OFM2[0] DFFHQNx1_ASAP7_75t_R
XU17 n125 n126 n681 OR2x2_ASAP7_75t_R
XU20 n128 n129 n683 OR2x2_ASAP7_75t_R
XU23 n130 n131 n685 OR2x2_ASAP7_75t_R
XU26 n132 n133 n687 OR2x2_ASAP7_75t_R
XU29 n134 n135 n689 OR2x2_ASAP7_75t_R
XU32 n136 n137 n691 OR2x2_ASAP7_75t_R
XU35 n138 n139 n693 OR2x2_ASAP7_75t_R
XU38 n140 n141 n695 OR2x2_ASAP7_75t_R
XU41 n142 n143 n697 OR2x2_ASAP7_75t_R
XU44 n144 n145 n699 OR2x2_ASAP7_75t_R
XU47 n146 n147 n701 OR2x2_ASAP7_75t_R
XU50 n148 n149 n703 OR2x2_ASAP7_75t_R
XU53 n150 n151 n705 OR2x2_ASAP7_75t_R
XU56 n152 n153 n707 OR2x2_ASAP7_75t_R
XU59 n154 n155 n709 OR2x2_ASAP7_75t_R
XU62 n156 n157 n711 OR2x2_ASAP7_75t_R
XU65 n158 n159 n713 OR2x2_ASAP7_75t_R
XU68 n160 n161 n715 OR2x2_ASAP7_75t_R
XU71 n162 n163 n717 OR2x2_ASAP7_75t_R
XU74 n164 n165 n719 OR2x2_ASAP7_75t_R
XU77 n166 n167 n721 OR2x2_ASAP7_75t_R
XU80 n168 n169 n723 OR2x2_ASAP7_75t_R
XU83 n170 n171 n725 OR2x2_ASAP7_75t_R
XU86 n172 n173 n727 OR2x2_ASAP7_75t_R
XU89 n174 n175 n729 OR2x2_ASAP7_75t_R
XU92 n176 n177 n731 OR2x2_ASAP7_75t_R
XU95 n178 n179 n733 OR2x2_ASAP7_75t_R
XU98 n180 n181 n735 OR2x2_ASAP7_75t_R
XU101 n182 n183 n737 OR2x2_ASAP7_75t_R
XU104 n184 n185 n739 OR2x2_ASAP7_75t_R
XU107 n186 n187 n741 OR2x2_ASAP7_75t_R
XU110 n188 n189 n743 OR2x2_ASAP7_75t_R
XU113 n190 n191 n745 OR2x2_ASAP7_75t_R
XU116 n192 n193 n747 OR2x2_ASAP7_75t_R
XU119 n194 n195 n749 OR2x2_ASAP7_75t_R
XU122 n196 n197 n751 OR2x2_ASAP7_75t_R
XU125 n198 n199 n753 OR2x2_ASAP7_75t_R
XU128 n200 n201 n755 OR2x2_ASAP7_75t_R
XU131 n202 n203 n757 OR2x2_ASAP7_75t_R
XU134 n204 n205 n759 OR2x2_ASAP7_75t_R
XU137 n206 n207 n761 OR2x2_ASAP7_75t_R
XU140 n208 n209 n763 OR2x2_ASAP7_75t_R
XU143 n210 n211 n765 OR2x2_ASAP7_75t_R
XU146 n212 n213 n767 OR2x2_ASAP7_75t_R
XU149 n214 n215 n769 OR2x2_ASAP7_75t_R
XU152 n216 n217 n771 OR2x2_ASAP7_75t_R
XU155 n218 n219 n773 OR2x2_ASAP7_75t_R
XU158 n220 n221 n775 OR2x2_ASAP7_75t_R
XU161 n222 n223 n777 OR2x2_ASAP7_75t_R
XU164 n224 n225 n779 OR2x2_ASAP7_75t_R
XU167 n226 n227 n781 OR2x2_ASAP7_75t_R
XU170 n228 n229 n783 OR2x2_ASAP7_75t_R
XU173 n230 n231 n785 OR2x2_ASAP7_75t_R
XU176 n232 n233 n787 OR2x2_ASAP7_75t_R
XU179 n234 n235 n789 OR2x2_ASAP7_75t_R
XU182 n236 n237 n791 OR2x2_ASAP7_75t_R
XU185 n238 n239 n793 OR2x2_ASAP7_75t_R
XU188 n240 n241 n795 OR2x2_ASAP7_75t_R
XU191 n242 n243 n797 OR2x2_ASAP7_75t_R
XU194 n244 n245 n799 OR2x2_ASAP7_75t_R
XU197 n246 n247 n801 OR2x2_ASAP7_75t_R
XU200 n248 n249 n803 OR2x2_ASAP7_75t_R
XU203 n250 n251 n805 OR2x2_ASAP7_75t_R
XU206 n252 n253 n807 OR2x2_ASAP7_75t_R
XU209 n254 n255 n809 OR2x2_ASAP7_75t_R
XU212 n256 n257 n811 OR2x2_ASAP7_75t_R
XU215 n258 n259 n813 OR2x2_ASAP7_75t_R
XU218 n260 n261 n815 OR2x2_ASAP7_75t_R
XU221 n262 n263 n817 OR2x2_ASAP7_75t_R
XU224 n264 n265 n819 OR2x2_ASAP7_75t_R
XU227 n266 n267 n821 OR2x2_ASAP7_75t_R
XU230 n268 n269 n823 OR2x2_ASAP7_75t_R
XU233 n270 n271 n825 OR2x2_ASAP7_75t_R
XU236 n272 n273 n827 OR2x2_ASAP7_75t_R
XU239 n274 n275 n829 OR2x2_ASAP7_75t_R
XU242 n276 n277 n831 OR2x2_ASAP7_75t_R
XU245 n278 n279 n833 OR2x2_ASAP7_75t_R
XU248 n280 n281 n835 OR2x2_ASAP7_75t_R
XU251 n282 n283 n837 OR2x2_ASAP7_75t_R
XU254 n284 n285 n839 OR2x2_ASAP7_75t_R
XU257 n286 n287 n841 OR2x2_ASAP7_75t_R
XU260 n288 n289 n843 OR2x2_ASAP7_75t_R
XU263 n290 n291 n845 OR2x2_ASAP7_75t_R
XU266 n292 n293 n847 OR2x2_ASAP7_75t_R
XU269 n294 n295 n849 OR2x2_ASAP7_75t_R
XU272 n296 n297 n851 OR2x2_ASAP7_75t_R
XU275 n298 n299 n853 OR2x2_ASAP7_75t_R
XU278 n300 n301 n855 OR2x2_ASAP7_75t_R
XU281 n302 n303 n857 OR2x2_ASAP7_75t_R
XU284 n304 n305 n859 OR2x2_ASAP7_75t_R
XU287 n306 n307 n861 OR2x2_ASAP7_75t_R
XU290 n308 n309 n863 OR2x2_ASAP7_75t_R
XU293 n310 n311 n865 OR2x2_ASAP7_75t_R
XU296 n312 n313 n867 OR2x2_ASAP7_75t_R
XU299 n314 n315 n869 OR2x2_ASAP7_75t_R
XU302 n316 n317 n871 OR2x2_ASAP7_75t_R
XU305 n318 n319 n873 OR2x2_ASAP7_75t_R
XU308 n320 n321 n875 OR2x2_ASAP7_75t_R
XU311 n322 n323 n877 OR2x2_ASAP7_75t_R
XU314 n324 n325 n879 OR2x2_ASAP7_75t_R
XU317 n326 n327 n881 OR2x2_ASAP7_75t_R
XU320 n328 n329 n883 OR2x2_ASAP7_75t_R
XU323 n330 n331 n885 OR2x2_ASAP7_75t_R
XU326 n332 n333 n887 OR2x2_ASAP7_75t_R
XU329 n334 n335 n889 OR2x2_ASAP7_75t_R
XU332 n336 n337 n891 OR2x2_ASAP7_75t_R
XU335 n338 n339 n893 OR2x2_ASAP7_75t_R
XU338 n340 n341 n895 OR2x2_ASAP7_75t_R
XU341 n342 n343 n897 OR2x2_ASAP7_75t_R
XU344 n344 n345 n899 OR2x2_ASAP7_75t_R
XU347 n346 n347 n901 OR2x2_ASAP7_75t_R
XU350 n348 n349 n903 OR2x2_ASAP7_75t_R
XU353 n350 n351 n905 OR2x2_ASAP7_75t_R
XU356 n352 n353 n907 OR2x2_ASAP7_75t_R
XU359 n354 n355 n909 OR2x2_ASAP7_75t_R
XU362 n356 n357 n911 OR2x2_ASAP7_75t_R
XU365 n358 n359 n913 OR2x2_ASAP7_75t_R
XU368 n360 n361 n915 OR2x2_ASAP7_75t_R
XU371 n362 n363 n917 OR2x2_ASAP7_75t_R
XU374 n364 n365 n919 OR2x2_ASAP7_75t_R
XU377 n366 n367 n921 OR2x2_ASAP7_75t_R
XU380 n368 n369 n923 OR2x2_ASAP7_75t_R
XU383 n370 n371 n925 OR2x2_ASAP7_75t_R
XU386 n372 n373 n927 OR2x2_ASAP7_75t_R
XU389 n374 n375 n929 OR2x2_ASAP7_75t_R
XU392 n376 n377 n931 OR2x2_ASAP7_75t_R
XU395 n378 n379 n933 OR2x2_ASAP7_75t_R
XU398 n380 n381 n935 OR2x2_ASAP7_75t_R
XU402 n382 n383 n937 OR2x2_ASAP7_75t_R
XU405 n384 n385 n939 OR2x2_ASAP7_75t_R
XU408 n386 n387 n941 OR2x2_ASAP7_75t_R
XU411 n388 n389 n943 OR2x2_ASAP7_75t_R
XU414 n390 n391 n945 OR2x2_ASAP7_75t_R
XU417 n392 n393 n947 OR2x2_ASAP7_75t_R
XU420 n394 n395 n949 OR2x2_ASAP7_75t_R
XU423 n396 n397 n951 OR2x2_ASAP7_75t_R
XU426 n398 n399 n953 OR2x2_ASAP7_75t_R
XU429 n400 n401 n955 OR2x2_ASAP7_75t_R
XU432 n402 n403 n957 OR2x2_ASAP7_75t_R
XU435 n404 n405 n959 OR2x2_ASAP7_75t_R
XU438 n406 n407 n961 OR2x2_ASAP7_75t_R
XU441 n408 n409 n963 OR2x2_ASAP7_75t_R
XU444 n410 n411 n965 OR2x2_ASAP7_75t_R
XU447 n412 n413 n967 OR2x2_ASAP7_75t_R
XU450 n414 n415 n969 OR2x2_ASAP7_75t_R
XU453 n416 n417 n971 OR2x2_ASAP7_75t_R
XU456 n418 n419 n973 OR2x2_ASAP7_75t_R
XU459 n420 n421 n975 OR2x2_ASAP7_75t_R
XU462 n422 n423 n977 OR2x2_ASAP7_75t_R
XU465 n424 n425 n979 OR2x2_ASAP7_75t_R
XU468 n426 n427 n981 OR2x2_ASAP7_75t_R
XU471 n428 n429 n983 OR2x2_ASAP7_75t_R
XU474 n430 n431 n985 OR2x2_ASAP7_75t_R
XU477 n432 n433 n987 OR2x2_ASAP7_75t_R
XU480 n434 n435 n989 OR2x2_ASAP7_75t_R
XU483 n436 n437 n991 OR2x2_ASAP7_75t_R
XU486 n438 n439 n993 OR2x2_ASAP7_75t_R
XU489 n440 n441 n995 OR2x2_ASAP7_75t_R
XU492 n442 n443 n997 OR2x2_ASAP7_75t_R
XU495 n444 n445 n999 OR2x2_ASAP7_75t_R
XU498 n446 n447 n1001 OR2x2_ASAP7_75t_R
XU501 n448 n449 n1003 OR2x2_ASAP7_75t_R
XU504 n450 n451 n1005 OR2x2_ASAP7_75t_R
XU507 n452 n453 n1007 OR2x2_ASAP7_75t_R
XU510 n454 n455 n1009 OR2x2_ASAP7_75t_R
XU513 n456 n457 n1011 OR2x2_ASAP7_75t_R
XU516 n458 n459 n1013 OR2x2_ASAP7_75t_R
XU519 n460 n461 n1015 OR2x2_ASAP7_75t_R
XU522 n462 n463 n1017 OR2x2_ASAP7_75t_R
XU525 n464 n465 n1019 OR2x2_ASAP7_75t_R
XU528 n466 n467 n1021 OR2x2_ASAP7_75t_R
XU531 n468 n469 n1023 OR2x2_ASAP7_75t_R
XU534 n470 n471 n1025 OR2x2_ASAP7_75t_R
XU537 n472 n473 n1027 OR2x2_ASAP7_75t_R
XU540 n474 n475 n1029 OR2x2_ASAP7_75t_R
XU543 n476 n477 n1031 OR2x2_ASAP7_75t_R
XU546 n478 n479 n1033 OR2x2_ASAP7_75t_R
XU549 n480 n481 n1035 OR2x2_ASAP7_75t_R
XU552 n482 n483 n1037 OR2x2_ASAP7_75t_R
XU555 n484 n485 n1039 OR2x2_ASAP7_75t_R
XU558 n486 n487 n1041 OR2x2_ASAP7_75t_R
XU561 n488 n489 n1043 OR2x2_ASAP7_75t_R
XU564 n490 n491 n1045 OR2x2_ASAP7_75t_R
XU567 n492 n493 n1047 OR2x2_ASAP7_75t_R
XU570 n494 n495 n1049 OR2x2_ASAP7_75t_R
XU573 n496 n497 n1051 OR2x2_ASAP7_75t_R
XU576 n498 n499 n1053 OR2x2_ASAP7_75t_R
XU579 n500 n501 n1055 OR2x2_ASAP7_75t_R
XU582 n502 n503 n1057 OR2x2_ASAP7_75t_R
XU585 n504 n505 n1059 OR2x2_ASAP7_75t_R
XU588 n506 n507 n1061 OR2x2_ASAP7_75t_R
XU591 n508 n509 n1063 OR2x2_ASAP7_75t_R
XU594 n510 n511 n1065 OR2x2_ASAP7_75t_R
XU597 n512 n513 n1067 OR2x2_ASAP7_75t_R
XU600 n514 n515 n1069 OR2x2_ASAP7_75t_R
XU603 n516 n517 n1071 OR2x2_ASAP7_75t_R
XU606 n518 n519 n1073 OR2x2_ASAP7_75t_R
XU609 n520 n521 n1075 OR2x2_ASAP7_75t_R
XU612 n522 n523 n1077 OR2x2_ASAP7_75t_R
XU615 n524 n525 n1079 OR2x2_ASAP7_75t_R
XU618 n526 n527 n1081 OR2x2_ASAP7_75t_R
XU621 n528 n529 n1083 OR2x2_ASAP7_75t_R
XU624 n530 n531 n1085 OR2x2_ASAP7_75t_R
XU627 n532 n533 n1087 OR2x2_ASAP7_75t_R
XU630 n534 n535 n1089 OR2x2_ASAP7_75t_R
XU633 n536 n537 n1091 OR2x2_ASAP7_75t_R
XU636 n538 n539 n1093 OR2x2_ASAP7_75t_R
XU639 n540 n541 n1095 OR2x2_ASAP7_75t_R
XU642 n542 n543 n1097 OR2x2_ASAP7_75t_R
XU645 n544 n545 n1099 OR2x2_ASAP7_75t_R
XU648 n546 n547 n1101 OR2x2_ASAP7_75t_R
XU651 n548 n549 n1103 OR2x2_ASAP7_75t_R
XU654 n550 n551 n1105 OR2x2_ASAP7_75t_R
XU657 n552 n553 n1107 OR2x2_ASAP7_75t_R
XU660 n554 n555 n1109 OR2x2_ASAP7_75t_R
XU663 n556 n557 n1111 OR2x2_ASAP7_75t_R
XU666 n558 n559 n1113 OR2x2_ASAP7_75t_R
XU669 n560 n561 n1115 OR2x2_ASAP7_75t_R
XU672 n562 n563 n1117 OR2x2_ASAP7_75t_R
XU675 n564 n565 n1119 OR2x2_ASAP7_75t_R
XU678 n566 n567 n1121 OR2x2_ASAP7_75t_R
XU681 n568 n569 n1123 OR2x2_ASAP7_75t_R
XU684 n570 n571 n1125 OR2x2_ASAP7_75t_R
XU687 n572 n573 n1127 OR2x2_ASAP7_75t_R
XU690 n574 n575 n1129 OR2x2_ASAP7_75t_R
XU693 n576 n577 n1131 OR2x2_ASAP7_75t_R
XU696 n578 n579 n1133 OR2x2_ASAP7_75t_R
XU699 n580 n581 n1135 OR2x2_ASAP7_75t_R
XU702 n582 n583 n1137 OR2x2_ASAP7_75t_R
XU705 n584 n585 n1139 OR2x2_ASAP7_75t_R
XU708 n586 n587 n1141 OR2x2_ASAP7_75t_R
XU711 n588 n589 n1143 OR2x2_ASAP7_75t_R
XU714 n590 n591 n1145 OR2x2_ASAP7_75t_R
XU717 n592 n593 n1147 OR2x2_ASAP7_75t_R
XU720 n594 n595 n1149 OR2x2_ASAP7_75t_R
XU723 n596 n597 n1151 OR2x2_ASAP7_75t_R
XU726 n598 n599 n1153 OR2x2_ASAP7_75t_R
XU729 n600 n601 n1155 OR2x2_ASAP7_75t_R
XU732 n602 n603 n1157 OR2x2_ASAP7_75t_R
XU735 n604 n605 n1159 OR2x2_ASAP7_75t_R
XU738 n606 n607 n1161 OR2x2_ASAP7_75t_R
XU741 n608 n609 n1163 OR2x2_ASAP7_75t_R
XU744 n610 n611 n1165 OR2x2_ASAP7_75t_R
XU747 n612 n613 n1167 OR2x2_ASAP7_75t_R
XU750 n614 n615 n1169 OR2x2_ASAP7_75t_R
XU753 n616 n617 n1171 OR2x2_ASAP7_75t_R
XU756 n618 n619 n1173 OR2x2_ASAP7_75t_R
XU759 n620 n621 n1175 OR2x2_ASAP7_75t_R
XU762 n622 n623 n1177 OR2x2_ASAP7_75t_R
XU765 n624 n625 n1179 OR2x2_ASAP7_75t_R
XU768 n626 n627 n1181 OR2x2_ASAP7_75t_R
XU771 n628 n629 n1183 OR2x2_ASAP7_75t_R
XU774 n630 n631 n1185 OR2x2_ASAP7_75t_R
XU777 n632 n633 n1187 OR2x2_ASAP7_75t_R
XU780 n634 n635 n1189 OR2x2_ASAP7_75t_R
XU783 n636 n637 n1191 OR2x2_ASAP7_75t_R
Xr801 IFM[127] IFM[126] IFM[125] IFM[124] Weight[127] Weight[126] Weight[125] Weight[124] N17 N16 N15 N14 N13 N12 N11 N10 CIM_DW_mult_uns_31
Xr802 IFM[123] IFM[122] IFM[121] IFM[120] Weight[123] Weight[122] Weight[121] Weight[120] N25 N24 N23 N22 N21 N20 N19 N18 CIM_DW_mult_uns_30
Xr804 IFM[119] IFM[118] IFM[117] IFM[116] Weight[119] Weight[118] Weight[117] Weight[116] N704 N703 N702 N701 N700 N699 N698 N697 CIM_DW_mult_uns_29
Xr806 IFM[115] IFM[114] IFM[113] IFM[112] Weight[115] Weight[114] Weight[113] Weight[112] N722 N721 N720 N719 N718 N717 N716 N715 CIM_DW_mult_uns_28
Xr808 IFM[111] IFM[110] IFM[109] IFM[108] Weight[111] Weight[110] Weight[109] Weight[108] N741 N740 N739 N738 N737 N736 N735 N734 CIM_DW_mult_uns_27
Xr810 IFM[107] IFM[106] IFM[105] IFM[104] Weight[107] Weight[106] Weight[105] Weight[104] N761 N760 N759 N758 N757 N756 N755 N754 CIM_DW_mult_uns_26
Xr812 IFM[103] IFM[102] IFM[101] IFM[100] Weight[103] Weight[102] Weight[101] Weight[100] N782 N781 N780 N779 N778 N777 N776 N775 CIM_DW_mult_uns_25
Xr814 IFM[99] IFM[98] IFM[97] IFM[96] Weight[99] Weight[98] Weight[97] Weight[96] N803 N802 N801 N800 N799 N798 N797 N796 CIM_DW_mult_uns_24
Xr816 IFM[95] IFM[94] IFM[93] IFM[92] Weight[95] Weight[94] Weight[93] Weight[92] N824 N823 N822 N821 N820 N819 N818 N817 CIM_DW_mult_uns_23
Xr818 IFM[91] IFM[90] IFM[89] IFM[88] Weight[91] Weight[90] Weight[89] Weight[88] N845 N844 N843 N842 N841 N840 N839 N838 CIM_DW_mult_uns_22
Xr820 IFM[87] IFM[86] IFM[85] IFM[84] Weight[87] Weight[86] Weight[85] Weight[84] N866 N865 N864 N863 N862 N861 N860 N859 CIM_DW_mult_uns_21
Xr822 IFM[83] IFM[82] IFM[81] IFM[80] Weight[83] Weight[82] Weight[81] Weight[80] N887 N886 N885 N884 N883 N882 N881 N880 CIM_DW_mult_uns_20
Xr824 IFM[79] IFM[78] IFM[77] IFM[76] Weight[79] Weight[78] Weight[77] Weight[76] N908 N907 N906 N905 N904 N903 N902 N901 CIM_DW_mult_uns_19
Xr826 IFM[75] IFM[74] IFM[73] IFM[72] Weight[75] Weight[74] Weight[73] Weight[72] N929 N928 N927 N926 N925 N924 N923 N922 CIM_DW_mult_uns_18
Xr828 IFM[71] IFM[70] IFM[69] IFM[68] Weight[71] Weight[70] Weight[69] Weight[68] N950 N949 N948 N947 N946 N945 N944 N943 CIM_DW_mult_uns_17
Xr830 IFM[67] IFM[66] IFM[65] IFM[64] Weight[67] Weight[66] Weight[65] Weight[64] N971 N970 N969 N968 N967 N966 N965 N964 CIM_DW_mult_uns_16
Xr832 IFM[63] IFM[62] IFM[61] IFM[60] Weight[63] Weight[62] Weight[61] Weight[60] N992 N991 N990 N989 N988 N987 N986 N985 CIM_DW_mult_uns_15
Xr834 IFM[59] IFM[58] IFM[57] IFM[56] Weight[59] Weight[58] Weight[57] Weight[56] N1013 N1012 N1011 N1010 N1009 N1008 N1007 N1006 CIM_DW_mult_uns_14
Xr836 IFM[55] IFM[54] IFM[53] IFM[52] Weight[55] Weight[54] Weight[53] Weight[52] N1034 N1033 N1032 N1031 N1030 N1029 N1028 N1027 CIM_DW_mult_uns_13
Xr838 IFM[51] IFM[50] IFM[49] IFM[48] Weight[51] Weight[50] Weight[49] Weight[48] N1055 N1054 N1053 N1052 N1051 N1050 N1049 N1048 CIM_DW_mult_uns_12
Xr840 IFM[47] IFM[46] IFM[45] IFM[44] Weight[47] Weight[46] Weight[45] Weight[44] N1076 N1075 N1074 N1073 N1072 N1071 N1070 N1069 CIM_DW_mult_uns_11
Xr842 IFM[43] IFM[42] IFM[41] IFM[40] Weight[43] Weight[42] Weight[41] Weight[40] N1097 N1096 N1095 N1094 N1093 N1092 N1091 N1090 CIM_DW_mult_uns_10
Xr844 IFM[39] IFM[38] IFM[37] IFM[36] Weight[39] Weight[38] Weight[37] Weight[36] N1118 N1117 N1116 N1115 N1114 N1113 N1112 N1111 CIM_DW_mult_uns_9
Xr846 IFM[35] IFM[34] IFM[33] IFM[32] Weight[35] Weight[34] Weight[33] Weight[32] N1139 N1138 N1137 N1136 N1135 N1134 N1133 N1132 CIM_DW_mult_uns_8
Xr848 IFM[31] IFM[30] IFM[29] IFM[28] Weight[31] Weight[30] Weight[29] Weight[28] N1160 N1159 N1158 N1157 N1156 N1155 N1154 N1153 CIM_DW_mult_uns_7
Xr850 IFM[27] IFM[26] IFM[25] IFM[24] Weight[27] Weight[26] Weight[25] Weight[24] N1181 N1180 N1179 N1178 N1177 N1176 N1175 N1174 CIM_DW_mult_uns_6
Xr852 IFM[23] IFM[22] IFM[21] IFM[20] Weight[23] Weight[22] Weight[21] Weight[20] N1202 N1201 N1200 N1199 N1198 N1197 N1196 N1195 CIM_DW_mult_uns_5
Xr854 IFM[19] IFM[18] IFM[17] IFM[16] Weight[19] Weight[18] Weight[17] Weight[16] N1223 N1222 N1221 N1220 N1219 N1218 N1217 N1216 CIM_DW_mult_uns_4
Xr856 IFM[15] IFM[14] IFM[13] IFM[12] Weight[15] Weight[14] Weight[13] Weight[12] N1244 N1243 N1242 N1241 N1240 N1239 N1238 N1237 CIM_DW_mult_uns_3
Xr858 IFM[11] IFM[10] IFM[9] IFM[8] Weight[11] Weight[10] Weight[9] Weight[8] N1265 N1264 N1263 N1262 N1261 N1260 N1259 N1258 CIM_DW_mult_uns_2
Xr860 IFM[7] IFM[6] IFM[5] IFM[4] Weight[7] Weight[6] Weight[5] Weight[4] N1286 N1285 N1284 N1283 N1282 N1281 N1280 N1279 CIM_DW_mult_uns_1
Xr862 IFM[3] IFM[2] IFM[1] IFM[0] Weight[3] Weight[2] Weight[1] Weight[0] N1307 N1306 N1305 N1304 N1303 N1302 N1301 N1300 CIM_DW_mult_uns_0
Xadd_2_root_r893 n1254 n1254 N1045 N1044 N1043 N1042 N1041 N1040 N1039 N1038 N1037 N1036 n1212 n1254 n1254 N1024 N1023 N1022 N1021 N1020 N1019 N1018 N1017 N1016 N1015 n1198 n1254 SYNOPSYS_UNCONNECTED_1 N1193 N1192 N1191 N1190 N1189 N1188 N1187 N1186 N1185 N1184 N1183 N1182 CIM_DW01_add_2
Xadd_1_root_r893 n1254 n1254 add_4_root_r893_SUM_10_ add_4_root_r893_SUM_9_ add_4_root_r893_SUM_8_ add_4_root_r893_SUM_7_ add_4_root_r893_SUM_6_ add_4_root_r893_SUM_5_ add_4_root_r893_SUM_4_ add_4_root_r893_SUM_3_ add_4_root_r893_SUM_2_ add_4_root_r893_SUM_1_ n1213 n1254 n1254 add_5_root_r893_SUM_10_ add_5_root_r893_SUM_9_ add_5_root_r893_SUM_8_ add_5_root_r893_SUM_7_ add_5_root_r893_SUM_6_ add_5_root_r893_SUM_5_ add_5_root_r893_SUM_4_ add_5_root_r893_SUM_3_ add_5_root_r893_SUM_2_ add_5_root_r893_SUM_1_ n1199 n1254 SYNOPSYS_UNCONNECTED_2 N1277 N1276 N1275 N1274 N1273 N1272 N1271 N1270 N1269 N1268 N1267 N1266 CIM_DW01_add_1
Xadd_0_root_r893 n1254 N1193 N1192 N1191 N1190 N1189 N1188 N1187 N1186 N1185 N1184 N1183 N1182 n1254 N1277 N1276 N1275 N1274 N1273 N1272 N1271 N1270 N1269 N1268 N1267 N1266 n1254 N1320 N1319 N1318 N1317 N1316 N1315 N1314 N1313 N1312 N1311 N1310 N1309 N1308 CIM_DW01_add_0
Xadd_6_root_r893_U1_1 N784 add_6_root_r893_B_1_ n1211 n1880 n1879 FAx1_ASAP7_75t_R
Xadd_6_root_r893_U1_2 N785 add_6_root_r893_B_2_ n1897 n1882 n1881 FAx1_ASAP7_75t_R
Xadd_6_root_r893_U1_3 N786 add_6_root_r893_B_3_ n1898 n1884 n1883 FAx1_ASAP7_75t_R
Xadd_6_root_r893_U1_4 N787 add_6_root_r893_B_4_ n1899 n1886 n1885 FAx1_ASAP7_75t_R
Xadd_6_root_r893_U1_5 N788 add_6_root_r893_B_5_ n1900 n1888 n1887 FAx1_ASAP7_75t_R
Xadd_6_root_r893_U1_6 N789 add_6_root_r893_B_6_ n1901 n1890 n1889 FAx1_ASAP7_75t_R
Xadd_6_root_r893_U1_7 N790 add_6_root_r893_B_7_ n1902 n1892 n1891 FAx1_ASAP7_75t_R
Xadd_6_root_r893_U1_8 N791 add_6_root_r893_B_8_ n1903 n1894 n1893 FAx1_ASAP7_75t_R
Xadd_6_root_r893_U1_9 N792 add_6_root_r893_B_9_ n1904 n1896 n1895 FAx1_ASAP7_75t_R
Xadd_3_root_r893_U1_1 N805 N763 n1210 n1854 n1853 FAx1_ASAP7_75t_R
Xadd_3_root_r893_U1_2 N806 N764 n1871 n1856 n1855 FAx1_ASAP7_75t_R
Xadd_3_root_r893_U1_3 N807 N765 n1872 n1858 n1857 FAx1_ASAP7_75t_R
Xadd_3_root_r893_U1_4 N808 N766 n1873 n1860 n1859 FAx1_ASAP7_75t_R
Xadd_3_root_r893_U1_5 N809 N767 n1874 n1862 n1861 FAx1_ASAP7_75t_R
Xadd_3_root_r893_U1_6 N810 N768 n1875 n1864 n1863 FAx1_ASAP7_75t_R
Xadd_3_root_r893_U1_7 N811 N769 n1876 n1866 n1865 FAx1_ASAP7_75t_R
Xadd_3_root_r893_U1_8 N812 N770 n1877 n1868 n1867 FAx1_ASAP7_75t_R
Xadd_3_root_r893_U1_9 N813 N771 n1878 n1870 n1869 FAx1_ASAP7_75t_R
Xadd_4_root_r893_U1_1 N1057 N1204 n1209 n1828 n1827 FAx1_ASAP7_75t_R
Xadd_4_root_r893_U1_2 N1058 N1205 n1845 n1830 n1829 FAx1_ASAP7_75t_R
Xadd_4_root_r893_U1_3 N1059 N1206 n1846 n1832 n1831 FAx1_ASAP7_75t_R
Xadd_4_root_r893_U1_4 N1060 N1207 n1847 n1834 n1833 FAx1_ASAP7_75t_R
Xadd_4_root_r893_U1_5 N1061 N1208 n1848 n1836 n1835 FAx1_ASAP7_75t_R
Xadd_4_root_r893_U1_6 N1062 N1209 n1849 n1838 n1837 FAx1_ASAP7_75t_R
Xadd_4_root_r893_U1_7 N1063 N1210 n1850 n1840 n1839 FAx1_ASAP7_75t_R
Xadd_4_root_r893_U1_8 N1064 N1211 n1851 n1842 n1841 FAx1_ASAP7_75t_R
Xadd_4_root_r893_U1_9 N1065 N1212 n1852 n1844 n1843 FAx1_ASAP7_75t_R
Xadd_9_root_r893_U1_1 N889 N868 n1207 n1805 n1804 FAx1_ASAP7_75t_R
Xadd_9_root_r893_U1_2 N890 N869 n1820 n1807 n1806 FAx1_ASAP7_75t_R
Xadd_9_root_r893_U1_3 N891 N870 n1821 n1809 n1808 FAx1_ASAP7_75t_R
Xadd_9_root_r893_U1_4 N892 N871 n1822 n1811 n1810 FAx1_ASAP7_75t_R
Xadd_9_root_r893_U1_5 N893 N872 n1823 n1813 n1812 FAx1_ASAP7_75t_R
Xadd_9_root_r893_U1_6 N894 N873 n1824 n1815 n1814 FAx1_ASAP7_75t_R
Xadd_9_root_r893_U1_7 N895 N874 n1825 n1817 n1816 FAx1_ASAP7_75t_R
Xadd_9_root_r893_U1_8 N896 N875 n1826 n1819 n1818 FAx1_ASAP7_75t_R
Xadd_10_root_r893_U1_1 N973 N847 n1206 n1782 n1781 FAx1_ASAP7_75t_R
Xadd_10_root_r893_U1_2 N974 N848 n1797 n1784 n1783 FAx1_ASAP7_75t_R
Xadd_10_root_r893_U1_3 N975 N849 n1798 n1786 n1785 FAx1_ASAP7_75t_R
Xadd_10_root_r893_U1_4 N976 N850 n1799 n1788 n1787 FAx1_ASAP7_75t_R
Xadd_10_root_r893_U1_5 N977 N851 n1800 n1790 n1789 FAx1_ASAP7_75t_R
Xadd_10_root_r893_U1_6 N978 N852 n1801 n1792 n1791 FAx1_ASAP7_75t_R
Xadd_10_root_r893_U1_7 N979 N853 n1802 n1794 n1793 FAx1_ASAP7_75t_R
Xadd_10_root_r893_U1_8 N980 N854 n1803 n1796 n1795 FAx1_ASAP7_75t_R
Xadd_29_root_r893_U1_1 N818 N986 n1241 n1762 n1761 FAx1_ASAP7_75t_R
Xadd_29_root_r893_U1_2 N819 N987 n1775 n1764 n1763 FAx1_ASAP7_75t_R
Xadd_29_root_r893_U1_3 N820 N988 n1776 n1766 n1765 FAx1_ASAP7_75t_R
Xadd_29_root_r893_U1_4 N821 N989 n1777 n1768 n1767 FAx1_ASAP7_75t_R
Xadd_29_root_r893_U1_5 N822 N990 n1778 n1770 n1769 FAx1_ASAP7_75t_R
Xadd_29_root_r893_U1_6 N823 N991 n1779 n1772 n1771 FAx1_ASAP7_75t_R
Xadd_29_root_r893_U1_7 N824 N992 n1780 n1774 n1773 FAx1_ASAP7_75t_R
Xadd_22_root_r893_U1_1 N19 N965 n1240 n1742 n1741 FAx1_ASAP7_75t_R
Xadd_22_root_r893_U1_2 N20 N966 n1755 n1744 n1743 FAx1_ASAP7_75t_R
Xadd_22_root_r893_U1_3 N21 N967 n1756 n1746 n1745 FAx1_ASAP7_75t_R
Xadd_22_root_r893_U1_4 N22 N968 n1757 n1748 n1747 FAx1_ASAP7_75t_R
Xadd_22_root_r893_U1_5 N23 N969 n1758 n1750 n1749 FAx1_ASAP7_75t_R
Xadd_22_root_r893_U1_6 N24 N970 n1759 n1752 n1751 FAx1_ASAP7_75t_R
Xadd_22_root_r893_U1_7 N25 N971 n1760 n1754 n1753 FAx1_ASAP7_75t_R
Xadd_20_root_r893_U1_1 N839 N1007 n1239 n1722 n1721 FAx1_ASAP7_75t_R
Xadd_20_root_r893_U1_2 N840 N1008 n1735 n1724 n1723 FAx1_ASAP7_75t_R
Xadd_20_root_r893_U1_3 N841 N1009 n1736 n1726 n1725 FAx1_ASAP7_75t_R
Xadd_20_root_r893_U1_4 N842 N1010 n1737 n1728 n1727 FAx1_ASAP7_75t_R
Xadd_20_root_r893_U1_5 N843 N1011 n1738 n1730 n1729 FAx1_ASAP7_75t_R
Xadd_20_root_r893_U1_6 N844 N1012 n1739 n1732 n1731 FAx1_ASAP7_75t_R
Xadd_20_root_r893_U1_7 N845 N1013 n1740 n1734 n1733 FAx1_ASAP7_75t_R
Xadd_19_root_r893_U1_1 N1049 N716 n1238 n1702 n1701 FAx1_ASAP7_75t_R
Xadd_19_root_r893_U1_2 N1050 N717 n1715 n1704 n1703 FAx1_ASAP7_75t_R
Xadd_19_root_r893_U1_3 N1051 N718 n1716 n1706 n1705 FAx1_ASAP7_75t_R
Xadd_19_root_r893_U1_4 N1052 N719 n1717 n1708 n1707 FAx1_ASAP7_75t_R
Xadd_19_root_r893_U1_5 N1053 N720 n1718 n1710 n1709 FAx1_ASAP7_75t_R
Xadd_19_root_r893_U1_6 N1054 N721 n1719 n1712 n1711 FAx1_ASAP7_75t_R
Xadd_19_root_r893_U1_7 N1055 N722 n1720 n1714 n1713 FAx1_ASAP7_75t_R
Xadd_14_root_r893_U1_1 N931 N826 n1205 n1679 n1678 FAx1_ASAP7_75t_R
Xadd_14_root_r893_U1_2 N932 N827 n1694 n1681 n1680 FAx1_ASAP7_75t_R
Xadd_14_root_r893_U1_3 N933 N828 n1695 n1683 n1682 FAx1_ASAP7_75t_R
Xadd_14_root_r893_U1_4 N934 N829 n1696 n1685 n1684 FAx1_ASAP7_75t_R
Xadd_14_root_r893_U1_5 N935 N830 n1697 n1687 n1686 FAx1_ASAP7_75t_R
Xadd_14_root_r893_U1_6 N936 N831 n1698 n1689 n1688 FAx1_ASAP7_75t_R
Xadd_14_root_r893_U1_7 N937 N832 n1699 n1691 n1690 FAx1_ASAP7_75t_R
Xadd_14_root_r893_U1_8 N938 N833 n1700 n1693 n1692 FAx1_ASAP7_75t_R
Xadd_15_root_r893_U1_1 N1175 N755 n1237 n1659 n1658 FAx1_ASAP7_75t_R
Xadd_15_root_r893_U1_2 N1176 N756 n1672 n1661 n1660 FAx1_ASAP7_75t_R
Xadd_15_root_r893_U1_3 N1177 N757 n1673 n1663 n1662 FAx1_ASAP7_75t_R
Xadd_15_root_r893_U1_4 N1178 N758 n1674 n1665 n1664 FAx1_ASAP7_75t_R
Xadd_15_root_r893_U1_5 N1179 N759 n1675 n1667 n1666 FAx1_ASAP7_75t_R
Xadd_15_root_r893_U1_6 N1180 N760 n1676 n1669 n1668 FAx1_ASAP7_75t_R
Xadd_15_root_r893_U1_7 N1181 N761 n1677 n1671 n1670 FAx1_ASAP7_75t_R
Xadd_26_root_r893_U1_1 N698 N902 n1236 n1639 n1638 FAx1_ASAP7_75t_R
Xadd_26_root_r893_U1_2 N699 N903 n1652 n1641 n1640 FAx1_ASAP7_75t_R
Xadd_26_root_r893_U1_3 N700 N904 n1653 n1643 n1642 FAx1_ASAP7_75t_R
Xadd_26_root_r893_U1_4 N701 N905 n1654 n1645 n1644 FAx1_ASAP7_75t_R
Xadd_26_root_r893_U1_5 N702 N906 n1655 n1647 n1646 FAx1_ASAP7_75t_R
Xadd_26_root_r893_U1_6 N703 N907 n1656 n1649 n1648 FAx1_ASAP7_75t_R
Xadd_26_root_r893_U1_7 N704 N908 n1657 n1651 n1650 FAx1_ASAP7_75t_R
Xadd_12_root_r893_U1_1 N1120 N1225 n1204 n1616 n1615 FAx1_ASAP7_75t_R
Xadd_12_root_r893_U1_2 N1121 N1226 n1631 n1618 n1617 FAx1_ASAP7_75t_R
Xadd_12_root_r893_U1_3 N1122 N1227 n1632 n1620 n1619 FAx1_ASAP7_75t_R
Xadd_12_root_r893_U1_4 N1123 N1228 n1633 n1622 n1621 FAx1_ASAP7_75t_R
Xadd_12_root_r893_U1_5 N1124 N1229 n1634 n1624 n1623 FAx1_ASAP7_75t_R
Xadd_12_root_r893_U1_6 N1125 N1230 n1635 n1626 n1625 FAx1_ASAP7_75t_R
Xadd_12_root_r893_U1_7 N1126 N1231 n1636 n1628 n1627 FAx1_ASAP7_75t_R
Xadd_12_root_r893_U1_8 N1127 N1232 n1637 n1630 n1629 FAx1_ASAP7_75t_R
Xadd_17_root_r893_U1_1 N1091 N1217 n1235 n1596 n1595 FAx1_ASAP7_75t_R
Xadd_17_root_r893_U1_2 N1092 N1218 n1609 n1598 n1597 FAx1_ASAP7_75t_R
Xadd_17_root_r893_U1_3 N1093 N1219 n1610 n1600 n1599 FAx1_ASAP7_75t_R
Xadd_17_root_r893_U1_4 N1094 N1220 n1611 n1602 n1601 FAx1_ASAP7_75t_R
Xadd_17_root_r893_U1_5 N1095 N1221 n1612 n1604 n1603 FAx1_ASAP7_75t_R
Xadd_17_root_r893_U1_6 N1096 N1222 n1613 n1606 n1605 FAx1_ASAP7_75t_R
Xadd_17_root_r893_U1_7 N1097 N1223 n1614 n1608 n1607 FAx1_ASAP7_75t_R
Xadd_21_root_r893_U1_1 N797 N1259 n1234 n1576 n1575 FAx1_ASAP7_75t_R
Xadd_21_root_r893_U1_2 N798 N1260 n1589 n1578 n1577 FAx1_ASAP7_75t_R
Xadd_21_root_r893_U1_3 N799 N1261 n1590 n1580 n1579 FAx1_ASAP7_75t_R
Xadd_21_root_r893_U1_4 N800 N1262 n1591 n1582 n1581 FAx1_ASAP7_75t_R
Xadd_21_root_r893_U1_5 N801 N1263 n1592 n1584 n1583 FAx1_ASAP7_75t_R
Xadd_21_root_r893_U1_6 N802 N1264 n1593 n1586 n1585 FAx1_ASAP7_75t_R
Xadd_21_root_r893_U1_7 N803 N1265 n1594 n1588 n1587 FAx1_ASAP7_75t_R
Xadd_11_root_r893_U1_1 N1246 N1099 n1203 n1553 n1552 FAx1_ASAP7_75t_R
Xadd_11_root_r893_U1_2 N1247 N1100 n1568 n1555 n1554 FAx1_ASAP7_75t_R
Xadd_11_root_r893_U1_3 N1248 N1101 n1569 n1557 n1556 FAx1_ASAP7_75t_R
Xadd_11_root_r893_U1_4 N1249 N1102 n1570 n1559 n1558 FAx1_ASAP7_75t_R
Xadd_11_root_r893_U1_5 N1250 N1103 n1571 n1561 n1560 FAx1_ASAP7_75t_R
Xadd_11_root_r893_U1_6 N1251 N1104 n1572 n1563 n1562 FAx1_ASAP7_75t_R
Xadd_11_root_r893_U1_7 N1252 N1105 n1573 n1565 n1564 FAx1_ASAP7_75t_R
Xadd_11_root_r893_U1_8 N1253 N1106 n1574 n1567 n1566 FAx1_ASAP7_75t_R
Xadd_18_root_r893_U1_1 N923 N1301 n1233 n1533 n1532 FAx1_ASAP7_75t_R
Xadd_18_root_r893_U1_2 N924 N1302 n1546 n1535 n1534 FAx1_ASAP7_75t_R
Xadd_18_root_r893_U1_3 N925 N1303 n1547 n1537 n1536 FAx1_ASAP7_75t_R
Xadd_18_root_r893_U1_4 N926 N1304 n1548 n1539 n1538 FAx1_ASAP7_75t_R
Xadd_18_root_r893_U1_5 N927 N1305 n1549 n1541 n1540 FAx1_ASAP7_75t_R
Xadd_18_root_r893_U1_6 N928 N1306 n1550 n1543 n1542 FAx1_ASAP7_75t_R
Xadd_18_root_r893_U1_7 N929 N1307 n1551 n1545 n1544 FAx1_ASAP7_75t_R
Xadd_24_root_r893_U1_1 N776 N1238 n1232 n1513 n1512 FAx1_ASAP7_75t_R
Xadd_24_root_r893_U1_2 N777 N1239 n1526 n1515 n1514 FAx1_ASAP7_75t_R
Xadd_24_root_r893_U1_3 N778 N1240 n1527 n1517 n1516 FAx1_ASAP7_75t_R
Xadd_24_root_r893_U1_4 N779 N1241 n1528 n1519 n1518 FAx1_ASAP7_75t_R
Xadd_24_root_r893_U1_5 N780 N1242 n1529 n1521 n1520 FAx1_ASAP7_75t_R
Xadd_24_root_r893_U1_6 N781 N1243 n1530 n1523 n1522 FAx1_ASAP7_75t_R
Xadd_24_root_r893_U1_7 N782 N1244 n1531 n1525 n1524 FAx1_ASAP7_75t_R
Xadd_7_root_r893_U1_1 N952 N1162 n1202 n1490 n1489 FAx1_ASAP7_75t_R
Xadd_7_root_r893_U1_2 N953 N1163 n1505 n1492 n1491 FAx1_ASAP7_75t_R
Xadd_7_root_r893_U1_3 N954 N1164 n1506 n1494 n1493 FAx1_ASAP7_75t_R
Xadd_7_root_r893_U1_4 N955 N1165 n1507 n1496 n1495 FAx1_ASAP7_75t_R
Xadd_7_root_r893_U1_5 N956 N1166 n1508 n1498 n1497 FAx1_ASAP7_75t_R
Xadd_7_root_r893_U1_6 N957 N1167 n1509 n1500 n1499 FAx1_ASAP7_75t_R
Xadd_7_root_r893_U1_7 N958 N1168 n1510 n1502 n1501 FAx1_ASAP7_75t_R
Xadd_7_root_r893_U1_8 N959 N1169 n1511 n1504 n1503 FAx1_ASAP7_75t_R
Xadd_28_root_r893_U1_1 N1028 N860 n1231 n1470 n1469 FAx1_ASAP7_75t_R
Xadd_28_root_r893_U1_2 N1029 N861 n1483 n1472 n1471 FAx1_ASAP7_75t_R
Xadd_28_root_r893_U1_3 N1030 N862 n1484 n1474 n1473 FAx1_ASAP7_75t_R
Xadd_28_root_r893_U1_4 N1031 N863 n1485 n1476 n1475 FAx1_ASAP7_75t_R
Xadd_28_root_r893_U1_5 N1032 N864 n1486 n1478 n1477 FAx1_ASAP7_75t_R
Xadd_28_root_r893_U1_6 N1033 N865 n1487 n1480 n1479 FAx1_ASAP7_75t_R
Xadd_28_root_r893_U1_7 N1034 N866 n1488 n1482 n1481 FAx1_ASAP7_75t_R
Xadd_27_root_r893_U1_1 N1070 N1112 n1230 n1450 n1449 FAx1_ASAP7_75t_R
Xadd_27_root_r893_U1_2 N1071 N1113 n1463 n1452 n1451 FAx1_ASAP7_75t_R
Xadd_27_root_r893_U1_3 N1072 N1114 n1464 n1454 n1453 FAx1_ASAP7_75t_R
Xadd_27_root_r893_U1_4 N1073 N1115 n1465 n1456 n1455 FAx1_ASAP7_75t_R
Xadd_27_root_r893_U1_5 N1074 N1116 n1466 n1458 n1457 FAx1_ASAP7_75t_R
Xadd_27_root_r893_U1_6 N1075 N1117 n1467 n1460 n1459 FAx1_ASAP7_75t_R
Xadd_27_root_r893_U1_7 N1076 N1118 n1468 n1462 n1461 FAx1_ASAP7_75t_R
Xadd_5_root_r893_U1_1 N1078 add_5_root_r893_B_1_ n1208 n1424 n1423 FAx1_ASAP7_75t_R
Xadd_5_root_r893_U1_2 N1079 add_5_root_r893_B_2_ n1441 n1426 n1425 FAx1_ASAP7_75t_R
Xadd_5_root_r893_U1_3 N1080 add_5_root_r893_B_3_ n1442 n1428 n1427 FAx1_ASAP7_75t_R
Xadd_5_root_r893_U1_4 N1081 add_5_root_r893_B_4_ n1443 n1430 n1429 FAx1_ASAP7_75t_R
Xadd_5_root_r893_U1_5 N1082 add_5_root_r893_B_5_ n1444 n1432 n1431 FAx1_ASAP7_75t_R
Xadd_5_root_r893_U1_6 N1083 add_5_root_r893_B_6_ n1445 n1434 n1433 FAx1_ASAP7_75t_R
Xadd_5_root_r893_U1_7 N1084 add_5_root_r893_B_7_ n1446 n1436 n1435 FAx1_ASAP7_75t_R
Xadd_5_root_r893_U1_8 N1085 add_5_root_r893_B_8_ n1447 n1438 n1437 FAx1_ASAP7_75t_R
Xadd_5_root_r893_U1_9 N1086 add_5_root_r893_B_9_ n1448 n1440 n1439 FAx1_ASAP7_75t_R
Xadd_8_root_r893_U1_1 N994 N910 n1201 n1401 n1400 FAx1_ASAP7_75t_R
Xadd_8_root_r893_U1_2 N995 N911 n1416 n1403 n1402 FAx1_ASAP7_75t_R
Xadd_8_root_r893_U1_3 N996 N912 n1417 n1405 n1404 FAx1_ASAP7_75t_R
Xadd_8_root_r893_U1_4 N997 N913 n1418 n1407 n1406 FAx1_ASAP7_75t_R
Xadd_8_root_r893_U1_5 N998 N914 n1419 n1409 n1408 FAx1_ASAP7_75t_R
Xadd_8_root_r893_U1_6 N999 N915 n1420 n1411 n1410 FAx1_ASAP7_75t_R